BEGIN options
END options

BEGIN dimensions
  MAXBOUND  19
END dimensions

BEGIN period  1
  1 258      30.00000000
  1 267      30.00000000
  1 269      30.00000000
  1 279      30.00000000
  1 282      30.00000000
  1 317      30.00000000
  1 339      30.00000000
  1 341      30.00000000
  1 342      30.00000000
  1 346      30.00000000
  1 16      10.00000000
  1 60      10.00000000
  1 76      10.00000000
  1 78      10.00000000
  1 84      10.00000000
  1 90      10.00000000
  1 105      10.00000000
  1 123      10.00000000
  1 169      10.00000000
END period  1

