BEGIN options
END options

BEGIN dimensions
  MAXBOUND  32
END dimensions

BEGIN period  1
  1 12       7.50000000       0.10000000
  1 20       7.50000000       0.10000000
  1 21       7.50000000       0.10000000
  1 24       7.50000000       0.10000000
  1 25       7.50000000       0.10000000
  1 27       7.50000000       0.10000000
  1 28       7.50000000       0.10000000
  1 35       7.50000000       0.10000000
  1 44       7.50000000       0.10000000
  1 61       7.50000000       0.10000000
  1 62       7.50000000       0.10000000
  1 63       7.50000000       0.10000000
  1 67       7.50000000       0.10000000
  1 91       7.50000000       0.10000000
  1 100       7.50000000       0.10000000
  1 101       7.50000000       0.10000000
  1 5       7.50000000       0.10000000
  1 18       7.50000000       0.10000000
  1 22       7.50000000       0.10000000
  1 29       7.50000000       0.10000000
  1 30       7.50000000       0.10000000
  1 31       7.50000000       0.10000000
  1 32       7.50000000       0.10000000
  1 45       7.50000000       0.10000000
  1 46       7.50000000       0.10000000
  1 47       7.50000000       0.10000000
  1 51       7.50000000       0.10000000
  1 54       7.50000000       0.10000000
  1 65       7.50000000       0.10000000
  1 88       7.50000000       0.10000000
  1 93       7.50000000       0.10000000
  1 94       7.50000000       0.10000000
END period  1

