BEGIN options
  LENGTH_UNITS  meters
END options

BEGIN dimensions
  NLAY  1
  NCPL  363
  NVERT  208
END dimensions

BEGIN griddata
  top
    CONSTANT       1.00000000
  botm
    CONSTANT       0.00000000
END griddata

BEGIN vertices
  1       0.00000000       0.00000000
  2     100.00000000      10.00000000
  3     100.00000000      55.00000000
  4       0.00000000      65.00000000
  5      80.00000000      31.00000000
  6      95.00000000      31.00000000
  7      95.00000000      34.00000000
  8      80.00000000      34.00000000
  9      50.00000000       5.00000000
  10     100.00000000      32.50000000
  11      50.00000000      60.00000000
  12      75.00000000       7.50000000
  13     100.00000000      21.25000000
  14     100.00000000      43.75000000
  15      75.00000000      57.50000000
  16      87.00000000      34.00000000
  17      87.50000000      31.00000000
  18      74.68182760      32.50000000
  19      83.75000000      31.00000000
  20      83.50000000      34.00000000
  21      91.00000000      31.00000000
  22      91.00000000      34.00000000
  23      85.62500000      31.00000000
  24      84.68750000      27.67614225
  25      86.56250000      28.94143581
  26      87.86801643      24.98493128
  27      89.25000000      28.96026696
  28      93.00000000      27.51351167
  29      81.87500000      31.00000000
  30      81.75000000      34.00000000
  31      80.93750000      27.67614225
  32      82.62500000      37.10226723
  33      82.81250000      28.94143581
  34      80.87500000      35.92132658
  35      79.65651800      39.61406414
  36      77.03151800      36.51179691
  37      93.00000000      34.00000000
  38      93.00000000      31.00000000
  39      94.00000000      37.54544827
  40      92.00000000      29.25675583
  41      92.00000000      36.19580181
  42      94.00000000      29.26791326
  43      90.80765643      27.41433253
  44     100.00000000      26.87500000
  45      92.07964547      23.57750174
  46      97.20071508      28.57473040
  47      95.26728159      27.38337092
  48      94.00475157      25.20296339
  49      97.50360722      25.91862779
  50      90.60744915      40.41607330
  51      89.00000000      36.23643717
  52      95.69675780      21.24632064
  53     100.00000000      24.06250000
  54      89.00000000      34.00000000
  55      85.25000000      34.00000000
  56      86.12500000      36.79499272
  57      84.37500000      35.80838741
  58      89.25000000      31.00000000
  59      76.33149289      28.17115039
  60      82.81250000      22.23523886
  61     100.00000000      38.12500000
  62      84.88748830      42.78611065
  63      72.84455401      42.71633137
  64      95.19290598      42.39524186
  65      87.50000000       8.75000000
  66     100.00000000      15.62500000
  67      67.83280406      27.41117372
  68      78.17863316      23.68187859
  69      88.07147103      18.58854479
  70      71.31244500      37.16743110
  71      87.50000000      56.25000000
  72     100.00000000      49.37500000
  73      90.22990163      47.59231360
  74      92.03970248       9.20397025
  75      89.30947313      13.58076623
  76      72.42654893      23.93979076
  77      78.10267605      15.29366759
  78      93.75000000      55.62500000
  79      94.77905968      13.95272281
  80      81.25000000       8.12500000
  81      83.77203051      14.86873893
  82      78.84223686      46.85605918
  83      62.24183008      42.65788786
  84      62.50000000       6.25000000
  85      63.97587215      17.53203984
  86      71.97399606      50.39222335
  87      62.50000000      58.75000000
  88      67.52492921      46.00032141
  89      65.45290923      52.54874963
  90      68.75000000      58.12500000
  91      55.47249629      51.59996292
  92      60.28973437      53.89383366
  93      56.25000000      59.37500000
  94      60.10607485      48.07437707
  95      51.57201132      41.58002762
  96      56.75491450      43.62367843
  97      57.78629202      33.41399547
  98      94.76678674      50.39178674
  99      84.32494671      50.48962371
  100      81.25000000      56.87500000
  101      77.65037767      52.44127671
  102      70.61871511      13.75862391
  103      73.54774385      18.48961538
  104      68.75000000       6.87500000
  105      65.03141389      11.65640420
  106      55.46033592      12.96961683
  107      25.00000000      62.50000000
  108      64.92196599      33.94799398
  109      66.31111116      39.14275162
  110      61.06617651      37.52882407
  111      55.80762063      38.35576679
  112      47.97409099      32.45933035
  113      59.54763292      24.95334045
  114      62.82529674      29.09784327
  115      64.64516541      22.96320285
  116      53.35296713      28.07739932
  117      42.89557418      20.73310128
  118      53.35450340      20.37674503
  119      47.08853448      25.88001346
  120      35.86799890      30.73951929
  121      40.79295055      26.72738035
  122      25.00000000       2.50000000
  123      31.21805919      20.00286917
  124      36.95383505      22.01481718
  125      37.50000000       3.75000000
  126      38.09858143      12.90847358
  127      58.35477861      17.79540761
  128      47.93003643      14.83167314
  129      42.70146117      15.46936070
  130      43.75000000       4.37500000
  131      44.69502655      10.06104495
  132      50.80566872      10.30336771
  133      56.25000000       5.62500000
  134      39.97335184       8.18714405
  135      31.25000000       3.12500000
  136      34.06368559       8.57338925
  137      27.55801417       8.48235829
  138      30.73688224      13.81408799
  139       0.00000000      32.50000000
  140      12.50000000       1.25000000
  141      20.00646896      17.76147258
  142      18.49542087       8.81938566
  143      24.65110794      13.82901780
  144       0.00000000      16.25000000
  145      18.75000000       1.87500000
  146      10.16796578      14.82528540
  147      15.80987787      13.87190611
  148      13.95732263      20.07940224
  149      12.02052102       8.61778926
  150      21.09094566      29.64390509
  151       0.00000000      24.37500000
  152       0.00000000       8.12500000
  153      18.87297668      23.85562812
  154       6.69954714      21.32029903
  155       5.93602830      10.18212785
  156      25.01966185      21.84640010
  157      11.61378572      28.21762966
  158      29.90940582      26.94488144
  159       5.19701447      16.34433144
  160       5.43487617      27.42068082
  161       0.00000000      49.00000000
  162       7.57744568      35.16055299
  163      28.01173172      36.50034446
  164      30.81928007      32.09174506
  165      35.08155642      37.90438141
  166      41.44124214      34.97685216
  167      29.05767388      49.73521180
  168      46.48050360      38.31851869
  169      43.24450186      48.97511175
  170      40.65297826      41.63601855
  171      46.36535826      44.10317525
  172      34.37031106      44.99123779
  173      51.21954577      47.48637611
  174      49.39787034      53.62507914
  175      37.50000000      61.25000000
  176      43.75000000      60.62500000
  177      40.02631626      54.95066256
  178      27.96330104      43.16293560
  179      16.85965484      48.38909484
  180      23.14850170      47.34191682
  181      23.48918800      54.99242146
  182      18.51323159      38.91219871
  183      23.79441469      39.80116018
  184      32.91888199      55.75651497
  185      37.55774698      49.76682626
  186      12.50000000      63.75000000
  187      31.25000000      61.87500000
  188      18.75000000      63.12500000
  189      14.89429156      56.13041555
  190       0.00000000      57.00000000
  191       8.49106691      50.38462438
  192      18.85468242      53.01573478
  193      19.53232453      58.13374353
  194       7.53106903      58.00264995
  195       0.00000000      53.00000000
  196       4.03229095      51.00000000
  197       3.50413334      55.00000000
  198       0.00000000      40.75000000
  199       6.25000000      64.37500000
  200       5.41242233      44.53892425
  201       3.54677663      59.14445150
  202      13.19824979      51.57968201
  203      11.98484928      46.49108341
  204      10.13196192      40.68935673
  205      14.00113805      34.25028715
  206       0.00000000      36.62500000
  207       4.32884212      38.68750000
  208       6.25000000       0.62500000
END vertices

BEGIN cell2d
  1      75.64555833      25.26427324  3  76  59  68
  2      93.00000000      29.84155636  3  38  42  40
  3      43.59235307      24.44683169  3  117  121  119
  4      58.07011197       8.28153894  3  133  106  84
  5      94.33333333      33.00000000  3  7  6  37
  6      78.22727587      32.50000000  3  8  5  18
  7      82.38966877      39.83414734  3  35  62  32
  8      85.62500000      29.20585935  3  25  24  23
  9      81.07510813      53.26863347  3  99  101  100
  10      96.66666667      32.50000000  3  10  6  7
  11      73.72950567      38.79851980  3  70  63  36
  12      83.04166667      32.00000000  3  20  19  29
  13      79.08966430      28.94909755  3  59  5  31
  14      95.40023836      29.61421455  3  42  6  46
  15      90.68588548      28.54378511  3  40  43  27
  16      98.39763533      41.42341395  3  61  64  14
  17      81.75000000      35.67453127  3  34  32  30
  18      89.75000000      33.00000000  3  58  54  22
  19      93.00000000      35.91375002  3  39  37  41
  20      84.68750000      29.89204742  3  24  19  23
  21      86.70833333      32.00000000  3  17  23  16
  22      80.87500000      34.64044219  3  34  30  8
  23      74.57379705      12.18409717  3  102  77  12
  24      82.81250000      30.31381194  3  19  33  29
  25      81.20833333      32.00000000  3  29  5  30
  26      81.05217267      37.54588598  3  32  34  35
  27      84.87500000      32.00000000  3  23  19  55
  28      86.56250000      30.31381194  3  23  17  25
  29      87.83333333      33.00000000  3  16  54  17
  30      94.00000000      35.18181609  3  7  37  39
  31      91.66666667      33.00000000  3  22  37  21
  32      84.16666667      33.00000000  3  20  55  19
  33      81.87500000      29.20585935  3  33  31  29
  34      91.94929143      21.13745573  3  69  45  52
  35      89.83333333      30.32008899  3  21  27  58
  36      86.37267214      27.20083644  3  26  24  25
  37      87.77083333      29.63390092  3  27  25  17
  38      82.81250000      25.86250778  3  60  31  24
  39      95.59188013      26.16832070  3  48  47  49
  40      87.89350548      27.62887802  3  27  26  25
  41      91.93588548      28.06153334  3  40  28  43
  42      92.29735116      25.39826589  3  48  45  43
  43      97.40023836      30.69157680  3  46  6  10
  44      80.93750000      29.89204742  3  5  29  31
  45      80.58333333      33.00000000  3  8  30  5
  46      82.62500000      35.03408908  3  20  30  32
  47      82.37500000      33.00000000  3  30  20  29
  48      77.00444016      30.55705013  3  18  5  59
  49      85.12267214      24.96543746  3  26  60  24
  50      85.25000000      35.53446004  3  55  57  56
  51      92.00000000      34.73193394  3  41  37  22
  52      82.81250000      28.09790677  3  33  24  31
  53      83.75000000      29.20585935  3  33  19  24
  54      86.12500000      34.93166424  3  16  55  56
  55      79.18767867      37.34906254  3  36  35  34
  56      77.23778187      34.33726564  3  36  8  18
  57      79.30217267      35.47770783  3  34  8  36
  58      81.12874772      43.08541132  3  82  62  35
  59      76.51086334      39.61406414  3  63  35  36
  60      98.33333333      34.87500000  3  61  10  7
  61      93.66666667      32.00000000  3  38  37  6
  62      94.00000000      30.42263775  3  42  38  6
  63      92.33333333      32.00000000  3  38  21  37
  64      84.54582943      38.89445687  3  56  32  62
  65      88.33333333      34.74547906  3  51  54  16
  66      90.75000000      29.73900760  3  40  27  21
  67      92.00000000      30.41891861  3  40  21  38
  68      92.20248305      38.05244113  3  50  39  41
  69      90.66666667      35.47741299  3  51  41  22
  70      93.00000000      28.67939359  3  42  28  40
  71      96.65720130      27.29224304  3  49  47  46
  72      89.30855762      27.11984359  3  43  26  27
  73      90.25177278      25.32558852  3  26  43  45
  74      86.25066248      21.93623831  3  69  60  26
  75      95.48933222      28.40867153  3  46  47  42
  76      98.56558593      22.18627355  3  53  13  52
  77      94.08909386      28.05493195  3  28  42  47
  78      99.06690503      29.31657680  3  44  46  10
  79      92.60413600      26.71026920  3  43  28  48
  80      94.09067772      26.69994866  3  47  48  28
  81      93.92705162      23.34226193  3  45  48  52
  82      98.23477410      27.12278606  3  46  44  49
  83      95.73503886      24.12263727  3  48  49  52
  84      99.16786907      25.61870926  3  49  44  53
  85      96.39763533      39.35523004  3  61  39  64
  86      93.26678504      40.11892114  3  64  39  50
  87      90.53581638      37.61610409  3  51  50  41
  88      84.37500000      34.60279580  3  55  20  57
  89      89.33971098      22.38365927  3  45  69  26
  90      98.56558593      19.37377355  3  52  13  66
  91      90.41666667      32.00000000  3  21  58  22
  92      97.73345501      23.74248281  3  49  53  52
  93      89.66666667      34.74547906  3  54  51  22
  94      85.95833333      33.00000000  3  55  16  23
  95      87.37500000      35.67714330  3  51  16  56
  96      88.57748305      37.81583440  3  56  50  51
  97      87.20664581      39.99905889  3  62  50  56
  98      84.37500000      36.56854912  3  57  32  56
  99      83.50000000      35.63688488  3  57  20  32
  100      88.58333333      32.00000000  3  58  17  54
  101      88.66666667      30.32008899  3  58  27  17
  102      72.94870818      29.36077470  3  67  18  59
  103      80.64287772      24.53108656  3  60  68  31
  104      78.48254202      26.50972374  3  59  31  68
  105      98.25968656      13.19257427  3  66  2  79
  106      92.01008558      43.46787625  3  73  64  50
  107      96.33333333      36.55681609  3  39  61  7
  108      77.11443629      43.06215157  3  63  82  35
  109      64.36130443      48.87448270  3  94  89  88
  110      68.89353146      42.61980147  3  109  88  63
  111      90.49330054      53.15577120  3  78  73  71
  112      96.17226225      53.67226225  3  98  78  3
  113      90.72000128      15.37401128  3  69  79  75
  114      84.17401017      10.58124631  3  81  65  80
  115      74.34193020      35.39307600  3  36  18  70
  116      69.14553255      31.28638923  3  67  108  18
  117      72.19694863      26.50737162  3  67  59  76
  118      74.71764198      22.03709491  3  103  76  68
  119      87.05099156      15.67934998  3  75  81  69
  120      81.56240219      17.46588179  3  81  77  60
  121      74.55359564      46.65487130  3  63  86  82
  122      70.30541286      34.53847503  3  108  70  18
  123      98.25559558      47.83892891  3  98  72  14
  124      88.57494636      43.59816585  3  50  62  73
  125      96.65323091      45.51234286  3  98  14  64
  126      87.35161611      51.44397910  3  71  73  99
  127      89.61639187      10.51157883  3  75  74  65
  128      92.84909617      17.92919608  3  52  79  69
  129      92.04274510      12.24581976  3  79  74  75
  130      71.45623837       9.37787464  3  102  12  104
  131      69.38077703      16.59342638  3  85  103  102
  132      86.86050121      12.39983505  3  75  65  81
  133      79.69793640      20.40359501  3  77  68  60
  134      95.60625405      11.05223102  3  74  79  2
  135      92.91556279      51.20303345  3  73  78  98
  136      96.82527250      16.94134782  3  66  79  52
  137      84.88533385      18.56417419  3  69  81  60
  138      78.11755868      10.30622253  3  80  12  77
  139      81.04156885      12.76246884  3  77  81  80
  140      86.48077888      46.95601599  3  99  73  62
  141      76.15553686      49.89651975  3  86  101  82
  142      61.94957282      51.50565345  3  89  94  92
  143      64.09975122      36.87318989  3  109  108  110
  144      54.71151548      41.18649095  3  95  96  111
  145      68.30150613      24.77138911  3  115  67  76
  146      60.99724994      10.29200701  3  84  106  105
  147      62.74754787      55.06419443  3  87  89  92
  148      65.35929015      42.60032029  3  109  83  88
  149      70.78115976      46.36962538  3  88  86  63
  150      65.56763641      56.47458321  3  89  87  90
  151      68.31727817      49.64709813  3  86  88  89
  152      71.90799869      55.33907445  3  15  86  90
  153      57.33741022      54.95626552  3  93  92  91
  154      15.44193992      10.43636034  3  147  142  149
  155      68.72563510      53.68865766  3  89  90  86
  156      59.70093981      44.78531445  3  83  96  94
  157      51.88262345      57.66669305  3  174  11  93
  158      58.62276850      51.18939121  3  91  92  94
  159      54.48231885      47.57000582  3  96  173  91
  160      59.67991146      57.33961122  3  93  87  92
  161      63.29094471      45.57752878  3  88  83  94
  162      52.02997080      50.90380606  3  91  173  174
  163      55.72320598      17.04725649  3  118  127  106
  164      57.44449521      47.76600614  3  94  96  91
  165      51.28671185      39.41810437  3  95  111  168
  166      56.89563069      28.81491175  3  116  97  113
  167      65.19335560      30.15233699  3  67  114  108
  168      93.39653145      46.79311407  3  73  98  64
  169      98.25559558      51.58892891  3  72  98  3
  170      77.96679256      55.60542557  3  15  100  101
  171      82.68489062      46.71059785  3  82  99  62
  172      74.87479124      53.44450002  3  15  101  86
  173      84.35831557      54.53820790  3  100  71  99
  174      80.27252041      49.92898653  3  82  101  99
  175      74.08971167      15.84730229  3  77  102  103
  176      66.54200038      14.31568931  3  85  102  105
  177      76.60968435      19.15505385  3  77  103  68
  178      70.20648606      21.79753633  3  115  76  103
  179      62.45402155      15.66128388  3  105  127  85
  180      68.13337633      10.76334270  3  102  104  105
  181      65.42713796       8.26046807  3  84  105  104
  182      60.84919231      21.90398363  3  115  127  113
  183      53.85600121      34.74303087  3  112  111  97
  184      67.51517405      36.75272557  3  70  108  109
  185      17.76043284      55.75996462  3  189  193  192
  186      60.05307389      29.15505973  3  113  97  114
  187      70.15603672      39.67550470  3  63  70  109
  188      63.20637259      39.77648785  3  83  109  110
  189      60.02097370      41.27013012  3  83  110  96
  190      61.25814484      34.96360451  3  110  108  97
  191      58.22002972      36.43286211  3  111  110  97
  192      57.87623722      39.83608976  3  110  111  96
  193      44.22289615      52.51695115  3  169  177  174
  194      52.24829192      16.05934500  3  128  118  106
  195      53.03778338      31.31690838  3  112  97  116
  196      57.08563831      21.04183103  3  127  118  113
  197      61.84451825      32.15327757  3  108  114  97
  198      62.33936502      25.67146219  3  113  114  115
  199      67.38959380      19.66161936  3  103  85  115
  200      65.10108874      26.49073995  3  67  115  114
  201      49.47186420      28.80558104  3  112  116  119
  202      55.41836782      24.46916160  3  118  116  113
  203      45.29861224      35.25156706  3  168  112  166
  204      39.25129255      16.79755049  3  124  129  126
  205      51.26533500      24.77805260  3  116  118  119
  206      48.06003800      18.64717315  3  117  118  128
  207      43.40276123      31.38785428  3  121  166  112
  208      47.77953735      22.32995326  3  117  119  118
  209       4.33744062      31.69374460  3  160  139  162
  210      45.10884138      13.45402626  3  129  128  131
  211      45.28519200      28.35557472  3  119  121  112
  212      34.24374659      26.56640597  3  124  158  120
  213      21.81871599      42.01842524  3  182  180  183
  214      40.21411993      23.15843294  3  124  121  117
  215      23.56818099      10.37692058  3  143  137  142
  216      37.87159483      26.49390561  3  121  124  120
  217      30.95723325       6.72691585  3  135  137  136
  218      35.42349189      18.30871997  3  124  126  123
  219      37.17901248       6.83684443  3  125  136  134
  220      48.50023176       8.45480422  3  9  131  132
  221      59.61550948      14.14047621  3  106  127  105
  222      62.32527206      19.43021677  3  115  85  127
  223      44.50902392      17.01137838  3  117  128  129
  224      52.35188957       6.97612257  3  9  132  133
  225      40.85029013      19.40575972  3  117  129  124
  226      40.92231994      10.38555419  3  126  131  134
  227      41.83168972      12.81295974  3  129  131  126
  228      42.80612613       7.54106300  3  134  131  130
  229      46.14834218       6.47868165  3  130  131  9
  230      51.39868036      12.70155256  3  132  128  106
  231      47.81024390      11.73202860  3  128  132  131
  232      37.37853962       9.88966896  3  126  134  136
  233      54.17200155       9.63266151  3  106  133  132
  234      40.40778395       5.43738135  3  125  134  130
  235      33.35117429      15.57514358  3  126  138  123
  236      34.27122853       5.14946308  3  136  125  135
  237      27.93600472       4.70245276  3  122  137  135
  238      30.78619400      10.28994518  3  137  138  136
  239      23.68447835       6.60058132  3  142  137  122
  240      34.29971642      11.76531694  3  136  138  126
  241      26.96294299      18.55942902  3  143  156  123
  242      27.64866812      12.04182136  3  137  143  138
  243      17.61225609      20.56550098  3  148  153  141
  244      28.71570895      22.93138357  3  156  158  123
  245       8.06884977       6.47497237  3  155  149  208
  246      19.65213556      12.17343652  3  142  147  143
  247      20.74847362       4.39812855  3  142  122  145
  248      28.86868312      15.88199165  3  138  143  123
  249      20.15581826      15.15413216  3  147  141  143
  250      13.31172210      16.25886458  3  148  147  146
  251      10.27494519      18.74166222  3  154  148  146
  252      16.42198063       6.43739164  3  142  145  149
  253      10.25684034       3.49759642  3  140  208  149
  254      16.59122316      17.23759364  3  141  147  148
  255      12.66612156      12.43832692  3  146  147  149
  256      21.66119473      25.11531110  3  156  153  150
  257       3.96552054      17.97154349  3  159  144  154
  258       1.97867610      11.51904262  3  155  152  144
  259      14.42350701       3.91426309  3  140  149  145
  260      27.27321051      29.56017720  3  150  164  158
  261      17.19256935      27.23905429  3  150  153  157
  262      21.29970250      21.15450027  3  141  153  156
  263       7.91606968      25.65286983  3  160  157  154
  264       9.37483837      11.20840083  3  149  155  146
  265      10.75688517      23.20577698  3  148  154  157
  266      14.81469501      24.05088668  3  157  153  148
  267       2.23318238      20.64843301  3  151  154  144
  268       7.10033618      13.78391489  3  159  146  155
  269       2.08333333       2.91666667  3  208  1  152
  270      23.22574625      17.81229683  3  141  156  143
  271      32.69376669      22.98752259  3  123  158  124
  272      24.29903069      35.31513658  3  183  163  150
  273       4.04480777      24.37199328  3  151  160  154
  274      32.19889493      29.92538193  3  120  158  164
  275      25.34000444      26.14506221  3  158  156  150
  276       3.71101426      14.25881976  3  144  159  155
  277       7.35484247      17.49663862  3  159  154  146
  278       8.20870253      30.26628782  3  157  160  162
  279       1.81162539      28.09856027  3  160  151  139
  280      17.86843843      34.26879698  3  182  150  205
  281       9.74012858      53.32231878  3  194  202  191
  282       2.52581523      34.76185100  3  162  139  206
  283      31.30418940      35.49882365  3  165  164  163
  284      30.35219639      39.18922049  3  165  163  178
  285      33.92294513      33.57854859  3  120  164  165
  286      26.64065248      32.74533154  3  163  164  150
  287      37.46359915      34.54025095  3  120  165  166
  288      48.13929106      41.33390719  3  168  171  95
  289      39.36739720      30.81458393  3  120  166  121
  290      50.08740507      36.37787194  3  168  111  112
  291      32.47172284      42.01951827  3  165  178  172
  292      39.05859227      38.17241737  3  166  165  170
  293      46.94313530      46.85488771  3  169  173  171
  294      42.85824133      38.31046313  3  170  168  166
  295      29.21935666      57.54131214  3  187  184  181
  296      30.46376199      45.96312840  3  167  172  178
  297      44.49961337      41.35257083  3  168  170  171
  298      37.52701210      45.46469420  3  170  172  185
  299      49.71897178      44.38985966  3  95  171  173
  300      43.42094613      44.90476852  3  169  171  170
  301      36.70161524      41.51054592  3  172  170  165
  302      40.48507570      46.79265219  3  169  170  185
  303      53.18215720      44.23002739  3  95  173  96
  304      53.70678888      54.86668068  3  91  174  93
  305      40.42543875      58.94188752  3  177  175  176
  306      47.95397266      50.02885567  3  174  173  169
  307      36.81506608      57.31905918  3  175  177  184
  308      44.39139553      56.40024723  3  176  174  177
  309      47.71595678      58.08335971  3  176  11  174
  310      33.17810095      51.75285101  3  184  185  167
  311      26.72315887      46.74668807  3  167  178  180
  312      26.58981582      39.82148008  3  163  183  178
  313      25.23178786      50.68985003  3  181  167  180
  314       8.62944618      47.13821068  3  191  203  200
  315      33.66191064      48.16442528  3  185  172  167
  316      19.50712937      44.88107012  3  180  182  179
  317       1.34409698      51.00000000  3  195  196  161
  318      21.83079071      51.78335769  3  192  181  180
  319      14.01425130      48.81995342  3  203  202  179
  320      11.06412315      32.54282327  3  162  205  157
  321      24.96873914      43.43533754  3  178  183  180
  322      21.13286398      36.11908799  3  182  183  150
  323      26.57972933      59.78914049  3  107  187  181
  324      28.48858129      53.49471608  3  184  167  181
  325      40.27618837      51.23086686  3  185  177  169
  326      36.83431507      53.49133460  3  177  185  184
  327       2.35030332      57.04815050  3  190  201  197
  328      15.38143052      61.00180518  3  189  186  188
  329      33.88962733      59.62717166  3  187  175  184
  330      21.09410818      61.25291451  3  193  188  107
  331      15.64907459      53.57527745  3  192  202  189
  332       3.14823776      48.17964142  3  161  196  200
  333      11.64178686      59.29435517  3  189  194  186
  334      16.30419568      50.99483721  3  179  202  192
  335      19.62094632      49.58224881  3  179  192  180
  336      20.62539832      55.38063326  3  181  192  193
  337      22.67383751      58.54205500  3  181  193  107
  338      17.72553869      59.12971969  3  193  189  188
  339       1.18225888      60.38148383  3  190  4  201
  340       2.51214143      53.00000000  3  197  196  195
  341       1.80414078      44.76297475  3  198  161  200
  342       1.16804445      55.00000000  3  195  190  197
  343       6.50875643      54.46242478  3  194  191  197
  344       5.34249707      52.12820813  3  196  197  191
  345       4.86065967      57.38236715  3  194  197  201
  346       1.44294737      38.68750000  3  198  207  206
  347       5.97859340      48.64118288  3  191  200  196
  348       8.76035634      62.04254998  3  199  186  194
  349       9.17641118      43.90645480  3  200  203  204
  350       5.77594855      60.50736715  3  201  199  194
  351       3.26559221      62.83981717  3  199  201  4
  352      11.87453679      55.23758251  3  189  202  194
  353      11.22472200      49.48512994  3  191  202  203
  354       6.62440879      41.30526033  3  204  207  200
  355      15.78591190      44.59745898  3  203  179  182
  356      10.57018188      36.70006562  3  162  204  205
  357      13.54334760      42.03087961  3  204  203  182
  358      15.56862314      30.70394063  3  157  205  150
  359      14.21544385      37.95061419  3  182  205  204
  360       7.34608324      38.17913657  3  162  207  204
  361       3.96876260      36.82435100  3  162  206  207
  362       3.24708815      41.32547475  3  207  198  200
  363       4.06200943       6.31070928  3  155  208  152
END cell2d

