BEGIN griddata
  strt
    CONSTANT      10.00000000
END griddata

