BEGIN options
  SAVE_FLOWS
END options

BEGIN packages
  DISV6  mf.disv  disv
  NPF6  mf.npf  npf
  IC6  mf.ic  ic
  CHD6  mf.chd  chd_0
  DRN6  mf.drn  drn_0
  OC6  mf.oc  oc
END packages

